    1
    1    0
   16
    1    0    1    1   50
    2    0    1    1   50
    1    1    0    3   50
    1    1    2    1   50
    3    0    1    2   50
    2    1    0    4   50
    2    1    2    1   50
    1    2    1    3   50
    1    2    3    1   50
    4    0    1    3   50
    3    1    0    5   50
    3    1    2    2   50
    2    2    1    4   50
    2    2    3    1   50
    1    3    2    3   50
    1    3    4    1   50
#########################

