    1
    2    0
  149
    1    0    2    1   50
    2    0    2    1   50
    3    0    2    1   50
    4    0    2    1   50
    5    0    2    1   50
    6    0    2    1   50
    7    0    2    1   50
    8    0    2    1   50
    9    0    2    1   50
   10    0    2    1   50
   11    0    2    1   50
   12    0    2    1   50
   13    0    2    1   50
   14    0    2    1   50
   15    0    2    1   50
   16    0    2    1   50
   17    0    2    1   50
   18    0    2    1   50
   19    0    2    1   50
   20    0    2    1   50
   21    0    2    1   50
   22    0    2    1   50
   23    0    2    1   50
   24    0    2    1   50
   25    0    2    1   50
   26    0    2    1   50
   27    0    2    1   50
   28    0    2    1   50
   29    0    2    1   50
   30    0    2    1   50
   31    0    2    1   50
   32    0    2    1   50
   33    0    2    1   50
   34    0    2    1   50
   35    0    2    1   50
   36    0    2    1   50
   37    0    2    1   50
   38    0    2    1   50
   39    0    2    1   50
   40    0    2    1   50
   41    0    2    1   50
   42    0    2    1   50
   43    0    2    1   50
   44    0    2    1   50
   45    0    2    1   50
   46    0    2    1   50
   47    0    2    1   50
   48    0    2    1   50
   49    0    2    1   50
   50    0    2    1   50
    1    1    1    1   50
    2    1    1    2   50
    3    1    1    3   50
    4    1    1    4   50
    5    1    1    5   50
    6    1    1    6   50
    7    1    1    7   50
    8    1    1    8   50
    9    1    1    9   50
   10    1    1   10   50
   11    1    1   11   50
   12    1    1   12   50
   13    1    1   13   50
   14    1    1   14   50
   15    1    1   15   50
   16    1    1   16   50
   17    1    1   17   50
   18    1    1   18   50
   19    1    1   19   50
   20    1    1   20   50
   21    1    1   21   50
   22    1    1   22   50
   23    1    1   23   50
   24    1    1   24   50
   25    1    1   25   50
   26    1    1   26   50
   27    1    1   27   50
   28    1    1   28   50
   29    1    1   29   50
   30    1    1   30   50
   31    1    1   31   50
   32    1    1   32   50
   33    1    1   33   50
   34    1    1   34   50
   35    1    1   35   50
   36    1    1   36   50
   37    1    1   37   50
   38    1    1   38   50
   39    1    1   39   50
   40    1    1   40   50
   41    1    1   41   50
   42    1    1   42   50
   43    1    1   43   50
   44    1    1   44   50
   45    1    1   45   50
   46    1    1   46   50
   47    1    1   47   50
   48    1    1   48   50
   49    1    1   49   50
   50    1    1   50   50
    1    2    2    1   50
    2    2    2    2   50
    3    2    2    3   50
    4    2    2    4   50
    5    2    2    5   50
    6    2    2    6   50
    7    2    2    7   50
    8    2    2    8   50
    9    2    2    9   50
   10    2    2   10   50
   11    2    2   11   50
   12    2    2   12   50
   13    2    2   13   50
   14    2    2   14   50
   15    2    2   15   50
   16    2    2   16   50
   17    2    2   17   50
   18    2    2   18   50
   19    2    2   19   50
   20    2    2   20   50
   21    2    2   21   50
   22    2    2   22   50
   23    2    2   23   50
   24    2    2   24   50
   25    2    2   25   50
   26    2    2   26   50
   27    2    2   27   50
   28    2    2   28   50
   29    2    2   29   50
   30    2    2   30   50
   31    2    2   31   50
   32    2    2   32   50
   33    2    2   33   50
   34    2    2   34   50
   35    2    2   35   50
   36    2    2   36   50
   37    2    2   37   50
   38    2    2   38   50
   39    2    2   39   50
   40    2    2   40   50
   41    2    2   41   50
   42    2    2   42   50
   43    2    2   43   50
   44    2    2   44   50
   45    2    2   45   50
   46    2    2   46   50
   47    2    2   47   50
   48    2    2   48   50
   49    2    2   49   50
   50    2    2   50   50
##########################



    1    0    2    1   50
    2    0    2    1   50
    3    0    2    1   50
    4    0    2    2   50

    1    2    0    2   50
    2    2    0    5   50


    1    1    1    1   50
    2    1    1    2   50
    3    1    1    3   50


    1    2    2    1   50
    2    2    2    2   50


    1    1    3    1   50
    2    1    3    1   50
    3    1    3    1   50



    1    2    4    1   50
    2    2    4    1   50


    1    3    1    4   50

    1    3    3    1   50
#########################

