    1
    1    0
   99
    1    0    1    1   50
    2    0    1    1   50
    3    0    1    1   50
    4    0    1    1   50
    5    0    1    1   50
    6    0    1    1   50
    7    0    1    1   50
    8    0    1    1   50
    9    0    1    1   50
   10    0    1    1   50
   11    0    1    1   50
   12    0    1    1   50
   13    0    1    1   50
   14    0    1    1   50
   15    0    1    1   50
   16    0    1    1   50
   17    0    1    1   50
   18    0    1    1   50
   19    0    1    1   50
   20    0    1    1   50
   21    0    1    1   50
   22    0    1    1   50
   23    0    1    1   50
   24    0    1    1   50
   25    0    1    1   50
   26    0    1    1   50
   27    0    1    1   50
   28    0    1    1   50
   29    0    1    1   50
   30    0    1    1   50
   31    0    1    1   50
   32    0    1    1   50
   33    0    1    1   50
   34    0    1    1   50
   35    0    1    1   50
   36    0    1    1   50
   37    0    1    1   50
   38    0    1    1   50
   39    0    1    1   50
   40    0    1    1   50
   41    0    1    1   50
   42    0    1    1   50
   43    0    1    1   50
   44    0    1    1   50
   45    0    1    1   50
   46    0    1    1   50
   47    0    1    1   50
   48    0    1    1   50
   49    0    1    1   50
   50    0    1    1   50
    1    1    2    1   50
    2    1    2    1   50
    3    1    2    1   50
    4    1    2    1   50
    5    1    2    1   50
    6    1    2    1   50
    7    1    2    1   50
    8    1    2    1   50
    9    1    2    1   50
   10    1    2    1   50
   11    1    2    1   50
   12    1    2    1   50
   13    1    2    1   50
   14    1    2    1   50
   15    1    2    1   50
   16    1    2    1   50
   17    1    2    1   50
   18    1    2    1   50
   19    1    2    1   50
   20    1    2    1   50
   21    1    2    1   50
   22    1    2    1   50
   23    1    2    1   50
   24    1    2    1   50
   25    1    2    1   50
   26    1    2    1   50
   27    1    2    1   50
   28    1    2    1   50
   29    1    2    1   50
   30    1    2    1   50
   31    1    2    1   50
   32    1    2    1   50
   33    1    2    1   50
   34    1    2    1   50
   35    1    2    1   50
   36    1    2    1   50
   37    1    2    1   50
   38    1    2    1   50
   39    1    2    1   50
   40    1    2    1   50
   41    1    2    1   50
   42    1    2    1   50
   43    1    2    1   50
   44    1    2    1   50
   45    1    2    1   50
   46    1    2    1   50
   47    1    2    1   50
   48    1    2    1   50
   49    1    2    1   50
   50    1    2    1   50



##########################



    1    0    1    1   50
    2    0    1    1   50
    3    0    1    2   50
    4    0    1    3   50

    1    1    0    3   50
    2    1    0    4   50
    3    1    0    5   50


    1    1    2    1   50
    2    1    2    1   50
    3    1    2    2   50


    1    2    1    3   50
    2    2    1    4   50



    1    2    3    1   50
    2    2    3    1   50

    1    3    2    3   50
    1    3    4    1   50
#########################

