    1	
    0    0
   17
    1    0    0    1   60
    1    1    1    1   60
    2    0    0    2   60
    2    1    1    2   60
    3    0    0    3   60
    1    2    2    1   60
    4    0    0    4   60
    3    1    1    3   60
    2    2    2    2   60
    1    3    3    1   60
    4    1    1    4   60
    3    2    2    3   60
    2    3    3    2   60
    6    0    0    6   60    
    5    1    1    5   60
    4    2    2    4   60
    3    3    3    3   60
########################

