    1
    3    0
   20
    1    0    3    1   50
    2    0    3    1   50
    1    1    2    1   50
    1    1    4    1   50
    3    0    3    1   50
    2    1    2    1   50
    2    1    4    1   50
    1    2    1    4   50
    1    2    3    1   50
    1    2    5    1   50
    4    0    3    1   50
    3    1    2    1   50
    3    1    4    1   50
    2    2    1    4   50
    2    2    3    1   50
    2    2    5    1   50
    1    3    0    5   50
    1    3    2    3   50
    1    3    4    1   50
    1    3    6    1   20
#########################

